134       
POC
P 8.347000 3.126000 -0.921000
CT 10.110000 2.265000 0.928000
N3 11.596000 0.116000 1.329000
O2 7.893000 4.541000 -0.790000
CT 10.177000 0.781000 1.354000
OS 8.738000 2.532000 0.691000
CT 12.544000 0.842000 2.272000
O2 9.477000 2.622000 -1.800000
CT 11.454000 -1.334000 1.774000
OS 6.985000 2.183000 -1.156000
CT 12.160000 0.141000 -0.092000
OS 5.039000 -2.331000 -1.272000
CT 6.241000 -1.494000 -1.235000
O 6.364000 -4.132000 -0.765000
CT 5.878000 -0.008000 -1.272000
OS 5.187000 0.342000 -0.029000
CT 7.201000 0.787000 -1.366000
O 3.405000 1.214000 -1.203000
CT -14.074000 -5.185000 0.196000
CT -12.742000 -4.402000 0.225000
CT -11.488000 -5.303000 0.114000
CT -10.158000 -4.515000 0.149000
CT -8.892000 -5.398000 0.017000
CT -7.579000 -4.582000 0.066000
CT -6.291000 -5.422000 -0.115000
CT -5.006000 -4.562000 -0.049000
CT -3.690000 -5.335000 -0.309000
CT -2.441000 -4.424000 -0.223000
CT -1.105000 -5.124000 -0.567000
CT 0.112000 -4.173000 -0.462000
CT 1.457000 -4.818000 -0.872000
CT 2.656000 -3.848000 -0.743000
CT 3.990000 -4.503000 -1.176000
C 5.257000 -3.664000 -1.023000
C 3.988000 1.027000 -0.143000
CT 3.489000 1.480000 1.224000
CT 2.155000 0.806000 1.668000
CT 0.903000 1.223000 0.864000
CT -0.410000 0.611000 1.410000
CT -1.658000 1.061000 0.612000
CT -2.995000 0.497000 1.148000
CT -4.224000 1.024000 0.354000
CM -5.553000 0.508000 0.868000
CM -6.624000 1.223000 1.276000
CT -6.749000 2.729000 1.387000
CT -7.991000 3.304000 0.652000
CT -8.078000 4.846000 0.745000
CT -9.238000 5.467000 -0.070000
CT -9.283000 7.012000 0.017000
CT -10.397000 7.660000 -0.839000
CT -10.427000 9.205000 -0.747000
CT -11.526000 9.855000 -1.617000
H1 10.669000 2.427000 -0.005000
H1 10.500000 2.929000 1.721000
HP 9.791000 0.631000 2.369000
HP 9.579000 0.187000 0.658000
HP 13.505000 0.319000 2.280000
HP 12.677000 1.867000 1.920000
HP 12.106000 0.845000 3.274000
HP 12.437000 -1.815000 1.754000
HP 10.772000 -1.846000 1.090000
HP 11.045000 -1.355000 2.788000
HP 12.316000 1.174000 -0.403000
HP 13.105000 -0.411000 -0.099000
HP 11.437000 -0.331000 -0.761000
H1 6.806000 -1.732000 -0.326000
H1 6.860000 -1.748000 -2.106000
H1 5.221000 0.230000 -2.115000
H1 7.647000 0.615000 -2.359000
H1 7.898000 0.394000 -0.608000
HC -14.936000 -4.506000 0.276000
HC -14.183000 -5.754000 -0.740000
HC -14.134000 -5.902000 1.030000
HC -12.685000 -3.818000 1.159000
HC -12.734000 -3.669000 -0.599000
HC -11.544000 -5.887000 -0.821000
HC -11.498000 -6.038000 0.938000
HC -10.102000 -3.948000 1.093000
HC -10.159000 -3.766000 -0.661000
HC -8.939000 -5.963000 -0.930000
HC -8.885000 -6.147000 0.827000
HC -7.526000 -4.051000 1.032000
HC -7.609000 -3.802000 -0.713000
HC -6.331000 -5.951000 -1.082000
HC -6.249000 -6.200000 0.666000
HC -4.949000 -4.086000 0.945000
HC -5.086000 -3.740000 -0.780000
HC -3.734000 -5.807000 -1.304000
HC -3.595000 -6.155000 0.423000
HC -2.375000 -4.006000 0.796000
HC -2.578000 -3.564000 -0.900000
HC -1.161000 -5.536000 -1.589000
HC -0.956000 -5.983000 0.109000
HC 0.191000 -3.805000 0.575000
HC -0.067000 -3.286000 -1.092000
HC 1.387000 -5.172000 -1.914000
HC 1.640000 -5.711000 -0.251000
HC 2.740000 -3.508000 0.301000
HC 2.475000 -2.951000 -1.352000
HC 3.939000 -4.773000 -2.244000
HC 4.171000 -5.436000 -0.626000
HC 3.343000 2.569000 1.154000
HC 4.267000 1.298000 1.975000
HC 2.004000 1.059000 2.731000
HC 2.276000 -0.289000 1.624000
HC 1.033000 0.928000 -0.186000
HC 0.822000 2.322000 0.863000
HC -0.534000 0.879000 2.473000
HC -0.341000 -0.490000 1.369000
HC -1.535000 0.752000 -0.439000
HC -1.706000 2.163000 0.603000
HC -3.111000 0.755000 2.213000
HC -2.977000 -0.604000 1.091000
HC -4.111000 0.710000 -0.699000
HC -4.203000 2.122000 0.354000
HA -5.661000 -0.581000 0.844000
HA -7.510000 0.662000 1.591000
HC -6.803000 3.012000 2.453000
HC -5.852000 3.217000 0.982000
HC -7.946000 3.005000 -0.408000
HC -8.908000 2.852000 1.065000
HC -8.175000 5.143000 1.803000
HC -7.126000 5.275000 0.388000
HC -9.136000 5.168000 -1.127000
HC -10.198000 5.051000 0.279000
HC -9.415000 7.312000 1.071000
HC -8.307000 7.416000 -0.300000
HC -10.262000 7.365000 -1.894000
HC -11.377000 7.259000 -0.529000
HC -10.574000 9.501000 0.305000
HC -9.443000 9.603000 -1.047000
HC -11.513000 10.952000 -1.523000
HC -11.389000 9.609000 -2.682000
HC -12.527000 9.506000 -1.321000
