127       
POS
P 7.996000 2.644000 -1.281000
CT 9.639000 1.251000 0.286000
NT 10.918000 -0.304000 1.697000
O2 7.385000 4.010000 -1.228000
CT 10.563000 1.151000 1.538000
OS 8.858000 2.441000 0.207000
C 11.845000 1.989000 1.378000
O2 8.847000 2.051000 -2.384000
CT 5.987000 -2.093000 -1.040000
OH 12.926000 1.331000 0.821000
CT 5.601000 -0.619000 -1.103000
OS 6.704000 1.560000 -1.018000
CT 6.914000 0.174000 -1.255000
O 11.924000 3.160000 1.707000
CT -14.057000 -4.882000 0.350000
OS 4.806000 -2.966000 -1.102000
CT -12.731000 -4.136000 0.620000
O 6.236000 -4.775000 -1.163000
CT -11.489000 -4.929000 0.162000
OS 5.011000 -0.258000 0.196000
CT -10.152000 -4.222000 0.460000
O 3.699000 1.385000 -0.777000
CT -8.929000 -4.997000 -0.069000
CT -7.587000 -4.314000 0.251000
CT -6.369000 -5.096000 -0.270000
CT -5.030000 -4.432000 0.091000
CT -3.810000 -5.207000 -0.432000
CT -2.474000 -4.554000 -0.041000
CT -1.250000 -5.307000 -0.586000
CT 0.077000 -4.643000 -0.187000
CT 1.310000 -5.328000 -0.799000
CT 2.615000 -4.586000 -0.460000
CT 3.832000 -5.150000 -1.220000
C 5.100000 -4.308000 -1.161000
C 4.219000 0.884000 0.209000
CT 3.999000 1.350000 1.648000
CT 2.660000 0.776000 2.184000
CT 1.442000 1.267000 1.377000
CT 0.113000 0.632000 1.822000
CT -1.083000 1.179000 1.020000
CT -2.457000 0.607000 1.426000
CT -3.586000 1.264000 0.602000
CM -4.958000 0.653000 0.776000
CM -6.097000 1.368000 0.828000
CT -6.137000 2.876000 0.704000
CT -7.370000 3.459000 -0.021000
CT -7.433000 4.996000 0.158000
CT -8.661000 5.674000 -0.484000
CT -8.749000 7.197000 -0.230000
CT -10.010000 7.816000 -0.871000
CT -10.131000 9.348000 -0.728000
CT -11.429000 9.907000 -1.360000
H1 10.224000 1.100000 -0.631000
H1 8.966000 0.394000 0.407000
H1 10.019000 1.560000 2.399000
H 10.108000 -0.852000 1.399000
H 11.058000 -0.545000 2.682000
HO 12.643000 0.393000 0.688000
H1 6.648000 -2.339000 -1.880000
H1 6.521000 -2.310000 -0.104000
H1 4.878000 -0.404000 -1.902000
H1 7.596000 -0.246000 -0.504000
H1 7.358000 -0.020000 -2.243000
HC -14.928000 -4.215000 0.443000
HC -14.197000 -5.715000 1.057000
HC -14.068000 -5.305000 -0.667000
HC -12.645000 -3.911000 1.697000
HC -12.739000 -3.162000 0.102000
HC -11.563000 -5.110000 -0.924000
HC -11.485000 -5.924000 0.639000
HC -10.044000 -4.076000 1.549000
HC -10.159000 -3.212000 0.014000
HC -9.021000 -5.123000 -1.162000
HC -8.928000 -6.015000 0.358000
HC -7.494000 -4.185000 1.343000
HC -7.579000 -3.299000 -0.180000
HC -6.441000 -5.202000 -1.366000
HC -6.387000 -6.121000 0.140000
HC -4.956000 -4.332000 1.187000
HC -5.010000 -3.406000 -0.314000
HC -3.871000 -5.285000 -1.531000
HC -3.839000 -6.241000 -0.047000
HC -2.407000 -4.489000 1.058000
HC -2.454000 -3.516000 -0.412000
HC -1.314000 -5.356000 -1.687000
HC -1.267000 -6.351000 -0.228000
HC 0.169000 -4.632000 0.912000
HC 0.063000 -3.587000 -0.504000
HC 1.192000 -5.363000 -1.896000
HC 1.372000 -6.375000 -0.459000
HC 2.803000 -4.624000 0.626000
HC 2.496000 -3.527000 -0.714000
HC 4.098000 -6.160000 -0.884000
HC 3.579000 -5.237000 -2.287000
HC 3.984000 2.450000 1.642000
HC 4.840000 1.027000 2.275000
HC 2.542000 1.056000 3.243000
HC 2.711000 -0.325000 2.150000
HC 1.602000 1.054000 0.311000
HC 1.376000 2.366000 1.456000
HC -0.049000 0.804000 2.900000
HC 0.173000 -0.462000 1.684000
HC -0.919000 0.978000 -0.052000
HC -1.101000 2.279000 1.117000
HC -2.629000 0.798000 2.500000
HC -2.465000 -0.489000 1.297000
HC -3.611000 2.319000 0.895000
HC -3.305000 1.245000 -0.466000
HA -4.999000 -0.438000 0.841000
HA -7.048000 0.861000 1.011000
HC -5.255000 3.221000 0.156000
HC -6.068000 3.327000 1.709000
HC -8.297000 2.996000 0.359000
HC -7.312000 3.211000 -1.096000
HC -6.511000 5.448000 -0.248000
HC -7.429000 5.216000 1.239000
HC -9.575000 5.195000 -0.094000
HC -8.656000 5.489000 -1.573000
HC -7.845000 7.690000 -0.629000
HC -8.749000 7.388000 0.857000
HC -10.902000 7.331000 -0.437000
HC -10.015000 7.562000 -1.945000
HC -9.256000 9.820000 -1.203000
HC -10.092000 9.627000 0.339000
HC -11.363000 10.991000 -1.542000
HC -12.302000 9.731000 -0.713000
HC -11.635000 9.422000 -2.328000
